Version 4
SHEET 1 1092 680
WIRE -1040 -208 -1040 -288
WIRE -848 -208 -848 -288
WIRE -720 -208 -720 -288
WIRE -592 -208 -592 -304
WIRE 272 -96 256 -96
WIRE 400 -96 352 -96
WIRE -1040 -80 -1040 -128
WIRE -848 -80 -848 -128
WIRE -720 -80 -720 -128
WIRE -592 -80 -592 -128
WIRE 256 32 256 -96
WIRE 400 32 400 -96
WIRE 400 32 320 32
WIRE 560 32 544 32
WIRE 256 128 256 32
WIRE 256 128 208 128
WIRE 272 128 256 128
WIRE 448 128 416 128
WIRE 544 128 544 32
WIRE 544 128 528 128
WIRE 560 128 544 128
WIRE 336 144 320 144
WIRE 400 144 400 32
WIRE 400 144 336 144
WIRE 416 144 416 128
WIRE 416 144 400 144
WIRE 640 144 640 32
WIRE 640 144 624 144
WIRE 800 144 640 144
WIRE 32 160 -208 160
WIRE 128 160 128 128
WIRE 128 160 32 160
WIRE 272 160 224 160
WIRE 560 160 432 160
WIRE 224 208 224 160
WIRE 432 224 432 160
WIRE 800 224 800 144
WIRE 848 224 800 224
WIRE 960 240 912 240
WIRE 1024 240 960 240
WIRE 128 256 128 160
WIRE 848 256 128 256
FLAG -848 -288 +5
FLAG -1040 -288 -5
FLAG -848 -80 0
FLAG -1040 -80 0
FLAG -720 -80 0
FLAG -592 -80 0
FLAG -720 -288 +15
FLAG -592 -304 -15
FLAG 880 208 +5
FLAG 880 272 -5
FLAG -208 480 0
FLAG 1024 320 0
FLAG 960 240 VOUT
FLAG 224 208 0
FLAG 624 144 vint
FLAG 32 160 vin
FLAG 304 112 +5
FLAG 304 176 -5
FLAG 592 112 +5
FLAG 592 176 -5
FLAG 432 224 0
SYMBOL voltage -1040 -224 R0
SYMATTR InstName V1
SYMATTR Value -5
SYMBOL voltage -848 -224 R0
SYMATTR InstName V2
SYMATTR Value 5
SYMBOL voltage -720 -224 R0
SYMATTR InstName V3
SYMATTR Value 15
SYMBOL voltage -592 -224 R0
SYMATTR InstName V4
SYMATTR Value -15
SYMBOL Opamps/OP07 880 176 R0
SYMATTR InstName U4
SYMBOL voltage -208 384 R0
SYMATTR InstName V5
SYMATTR Value 1
SYMBOL voltage -208 304 R0
WINDOW 3 51 67 Left 2
SYMATTR InstName V6
SYMATTR Value SINE(0 1 {F})
SYMBOL voltage -208 224 R0
WINDOW 3 44 58 Left 2
SYMATTR InstName V7
SYMATTR Value SINE(0 .33 3*{F})
SYMBOL voltage -208 144 R0
WINDOW 3 49 51 Left 2
SYMATTR InstName V8
SYMATTR Value SINE(0 0.2 5*{F})
SYMBOL res 1008 224 R0
SYMATTR InstName R3
SYMATTR Value 10K
SYMBOL Opamps/OP07 304 80 R0
SYMATTR InstName U1
SYMBOL cap 320 16 R90
WINDOW 0 0 32 VBottom 2
WINDOW 3 32 32 VTop 2
SYMATTR InstName C1
SYMATTR Value 1µ
SYMBOL res 224 112 R90
WINDOW 0 0 56 VBottom 2
WINDOW 3 32 56 VTop 2
SYMATTR InstName R1
SYMATTR Value 1meg
SYMBOL res 368 -112 R90
WINDOW 0 0 56 VBottom 2
WINDOW 3 32 56 VTop 2
SYMATTR InstName R2
SYMATTR Value 1meg
SYMBOL Opamps/OP07 592 80 R0
SYMATTR InstName U2
SYMBOL res 544 112 R90
WINDOW 0 0 56 VBottom 2
WINDOW 3 32 56 VTop 2
SYMATTR InstName R4
SYMATTR Value 100k
SYMBOL res 656 16 R90
WINDOW 0 0 56 VBottom 2
WINDOW 3 32 56 VTop 2
SYMATTR InstName R5
SYMATTR Value 100k
TEXT -992 -344 Left 2 ;supply rails
TEXT -24 552 Left 2 !.TRAN 0.1 0.101 0.1
TEXT -16 584 Left 2 !.param f=10k
